Version 4
SHEET 1 880 680
WIRE 144 96 32 96
WIRE -96 160 -208 160
WIRE 32 160 32 96
WIRE 32 160 0 160
WIRE 48 160 32 160
WIRE 144 160 144 96
WIRE 144 160 128 160
WIRE 224 160 144 160
WIRE 384 160 288 160
WIRE 544 160 464 160
WIRE 704 160 544 160
WIRE 704 208 704 160
WIRE -208 224 -208 160
WIRE 544 224 544 160
WIRE -208 304 -208 288
WIRE 0 0 0 0
FLAG 544 288 0
FLAG 704 288 0
FLAG -208 304 0
FLAG -416 224 0
FLAG -496 224 0
FLAG -576 224 0
FLAG -576 144 SW1
FLAG -496 144 SW2
FLAG -416 144 VCC
FLAG -208 64 VCC
FLAG -256 144 SW2
FLAG -16 208 SW1
SYMBOL TVSdiode 528 224 R0
SYMATTR InstName D1
SYMATTR Value SMBJ24CA
SYMBOL res 688 192 R0
SYMATTR InstName R2
SYMATTR Value 10K
SYMATTR SpiceLine tol=1 pwr=0.1
SYMBOL res 368 176 R270
WINDOW 0 32 56 VTop 2
WINDOW 3 0 56 VBottom 2
SYMATTR InstName R1
SYMATTR Value 0.01
SYMBOL cap -224 224 R0
SYMATTR InstName C1
SYMATTR Value 390p
SYMATTR SpiceLine V=200 Irms=36m Rser=10.3326 Lser=0 mfg="KEMET" pn="C0603C391K2RAC" type="X7R"
SYMBOL voltage -576 128 R0
WINDOW 123 0 0 Left 2
WINDOW 39 0 0 Left 2
SYMATTR InstName V1
SYMATTR Value PULSE(0 30010 5u 1n 1n 2u)
SYMBOL voltage -496 128 R0
WINDOW 123 0 0 Left 2
WINDOW 39 0 0 Left 2
SYMATTR InstName V2
SYMATTR Value PULSE(0 30010 1u 1n 1n 2u)
SYMBOL voltage -416 128 R0
WINDOW 3 24 44 Left 2
WINDOW 123 0 0 Left 2
WINDOW 39 0 0 Left 2
SYMATTR InstName V3
SYMATTR Value 30000
SYMBOL nmos -256 64 R0
SYMATTR InstName M1
SYMATTR Value RUF025N02
SYMBOL nmos -96 208 R270
SYMATTR InstName M2
SYMATTR Value SiR802DP
SYMBOL res 32 176 R270
WINDOW 0 32 56 VTop 2
WINDOW 3 0 56 VBottom 2
SYMATTR InstName R3
SYMATTR Value 1.5K
SYMATTR SpiceLine tol=1 pwr=0.1
SYMBOL FerriteBead2 256 160 R270
WINDOW 0 9 0 VTop 2
SYMATTR InstName L1
SYMATTR Value 285n
SYMATTR SpiceLine Ipk=8 Rser=0.0043 Rpar=145.3 Cpar=143f mfg="Wurth Elektronik" pn="742 792 261 01"
TEXT -610 328 Left 2 !.tran 0 10u 0 10n
